Circuit: CIRCUIT D:\INGEGNERIA\Microelectronics\Microwind4Cav\NotCarryGenerator\NotCarryGenerator.MSK

Model "p1": Oxide thickness thinner than recommended for a level 3 MOSFET.
Instance "mp10": Length shorter than recommended for a level 3 MOSFET.
Instance "mp9": Length shorter than recommended for a level 3 MOSFET.
Instance "mp8": Length shorter than recommended for a level 3 MOSFET.
Instance "mp8": Width narrower than recommended for a level 3 MOSFET.
Instance "mp7": Length shorter than recommended for a level 3 MOSFET.
Instance "mp7": Width narrower than recommended for a level 3 MOSFET.
Instance "mp6": Length shorter than recommended for a level 3 MOSFET.
Instance "mp6": Width narrower than recommended for a level 3 MOSFET.
Instance "mp5": Length shorter than recommended for a level 3 MOSFET.
Instance "mp5": Width narrower than recommended for a level 3 MOSFET.
Instance "mp4": Length shorter than recommended for a level 3 MOSFET.
Instance "mp4": Width narrower than recommended for a level 3 MOSFET.
Instance "mp3": Length shorter than recommended for a level 3 MOSFET.
Instance "mp3": Width narrower than recommended for a level 3 MOSFET.
Instance "mp2": Length shorter than recommended for a level 3 MOSFET.
Instance "mp2": Width narrower than recommended for a level 3 MOSFET.
Instance "mp1": Length shorter than recommended for a level 3 MOSFET.
Instance "mp1": Width narrower than recommended for a level 3 MOSFET.
Direct Newton iteration for .op point succeeded.

Date: Wed Oct 25 17:02:07 2017
Total elapsed time: 0.659 seconds.

tnom = 27
temp = 27
method = modified trap
totiter = 22320
traniter = 22311
tranpoints = 10203
accept = 10156
rejected = 47
matrix size = 14
fillins = 0
solver = Normal
Matrix Compiler1: 852 bytes object code size  0.3/0.1/[0.0]
Matrix Compiler2: 1.45 KB object code size  0.3/0.3/[0.2]


