Circuit: CIRCUIT D:\INGEGNERIA\Microelectronics\Microwind4Cav\NotCarryGenerator\NotCarryGenerator.MSK

Model "p1": Oxide thickness thinner than recommended for a level 3 MOSFET.
Instance "mp3": Length shorter than recommended for a level 3 MOSFET.
Instance "mp2": Length shorter than recommended for a level 3 MOSFET.
Instance "mp1": Length shorter than recommended for a level 3 MOSFET.
Direct Newton iteration for .op point succeeded.

Date: Wed Oct 25 16:18:53 2017
Total elapsed time: 0.391 seconds.

tnom = 27
temp = 27
method = modified trap
totiter = 23197
traniter = 23187
tranpoints = 10203
accept = 10156
rejected = 47
matrix size = 10
fillins = 0
solver = Normal
Matrix Compiler1: 382 bytes object code size  0.2/0.1/[0.1]
Matrix Compiler2: off  [0.1]/0.2/0.1


