Circuit: * D:\INGEGNERIA\Microelectronics\Microwind4Cav\LTSpice\TestInverter\testInverter.asc

WARNING: Less than two connections to node PHI.  This node is used by VPHI.
WARNING: Less than two connections to node SUM.  This node is used by VSUM.
.OP point found by inspection.

Date: Tue Oct 24 23:29:12 2017
Total elapsed time: 0.096 seconds.

tnom = 27
temp = 27
method = modified trap
totiter = 10388
traniter = 10388
tranpoints = 5195
accept = 5150
rejected = 45
matrix size = 4
fillins = 0
solver = Normal
Matrix Compiler1: 46 bytes object code size  0.0/0.0/[0.0]
Matrix Compiler2: off  [0.1]/0.1/0.1


