Circuit: CIRCUIT D:\INGEGNERIA\Microelectronics\Microwind4Cav\SumInverter\SumInverter.MSK

Model "p1": Oxide thickness thinner than recommended for a level 3 MOSFET.
Model "n1": Oxide thickness thinner than recommended for a level 3 MOSFET.
Instance "mp1": Length shorter than recommended for a level 3 MOSFET.
Instance "mn4": Length shorter than recommended for a level 3 MOSFET.
Instance "mn4": Width narrower than recommended for a level 3 MOSFET.
Instance "mn3": Length shorter than recommended for a level 3 MOSFET.
Instance "mn3": Width narrower than recommended for a level 3 MOSFET.
Instance "mn2": Length shorter than recommended for a level 3 MOSFET.
Instance "mn2": Width narrower than recommended for a level 3 MOSFET.
Instance "mn1": Length shorter than recommended for a level 3 MOSFET.
Instance "mn1": Width narrower than recommended for a level 3 MOSFET.
Direct Newton iteration for .op point succeeded.

Date: Tue Oct 24 23:37:55 2017
Total elapsed time: 0.209 seconds.

tnom = 27
temp = 27
method = modified trap
totiter = 10866
traniter = 10839
tranpoints = 5195
accept = 5150
rejected = 45
matrix size = 9
fillins = 0
solver = Normal
Matrix Compiler1: 386 bytes object code size  0.3/0.1/[0.1]
Matrix Compiler2: 737 bytes object code size  0.3/0.2/[0.1]


