Questionable use of curly braces in ".model sir870adp vdmos(rg=3 vto=2.9 rd=3.2m rs=1.5m rb={m} kp=100 mtriode=1.85 cgdmax=1.4n cgdmin=70p cgs=2.9n cjo=3.6n m=.4 a=.7 vj=.7 lambda=20m is=3p ksubthres=.08 mfg=siliconix vds=100 ron=5.5m qg=53.5n)"
    Error: undefined symbol in: "[m]"
Circuit: * D:\INGEGNERIA\Microelectronics\Microwind4Cav\LTSpice\TestPMos\PmosSweep.asc

.OP point found by inspection.
.step vsg=0
.step vsg=0.2
.step vsg=0.4
.step vsg=0.6
.step vsg=0.8
.step vsg=1
.step vsg=1.2

Date: Tue Oct 24 21:24:54 2017
Total elapsed time: 0.193 seconds.

tnom = 27
temp = 27
method = trap
totiter = 1704
traniter = 0
tranpoints = 0
accept = 0
rejected = 0
matrix size = 4
fillins = 0
solver = Normal
Matrix Compiler1: 82 bytes object code size  0.1/0.0/[0.0]
Matrix Compiler2: off  [0.0]/0.1/0.1


